  iter  continuity  x-velocity  y-velocity           k     epsilon     time/iter
     1  1.0000e+00  3.6584e-02  3.9163e-02  1.2525e-01  1.3504e+00  0:00:00  499
     2  9.2343e-01  2.3412e-02  1.9675e-02  7.1581e-02  1.3693e-01  0:00:00  498
     3  1.0000e+00  2.2838e-02  1.2852e-02  4.8177e-02  8.5850e-02  0:08:17  497
     4  1.0000e+00  2.4293e-02  9.8263e-03  2.5902e-02  3.7526e-02  0:06:37  496
     5  1.0000e+00  2.3719e-02  8.1470e-03  2.0292e-02  3.7342e-02  0:05:17  495
     6  1.0118e+00  2.2708e-02  7.0654e-03  1.5830e-02  3.2402e-02  0:04:13  494
     7  1.0056e+00  2.1126e-02  6.0963e-03  1.3237e-02  2.9098e-02  0:03:22  493
     8  9.4846e-01  1.9095e-02  5.3380e-03  1.1597e-02  2.5028e-02  0:02:41  492
     9  8.5235e-01  1.6830e-02  4.8811e-03  1.0531e-02  2.1128e-02  0:02:09  491
    10  7.8091e-01  1.4485e-02  4.4330e-03  1.0095e-02  2.0381e-02  0:01:43  490
    11  7.2151e-01  1.2372e-02  4.2219e-03  1.0049e-02  1.8038e-02  0:01:22  489

  iter  continuity  x-velocity  y-velocity           k     epsilon     time/iter
    12  6.5829e-01  1.0459e-02  3.9588e-03  9.5092e-03  1.8957e-02  0:02:43  488
    13  6.0942e-01  8.9545e-03  3.6748e-03  8.4313e-03  1.6494e-02  0:02:10  487
    14  5.4412e-01  7.6851e-03  3.1761e-03  7.9284e-03  1.6897e-02  0:01:44  486
    15  4.7020e-01  6.5827e-03  2.8888e-03  6.7714e-03  1.4881e-02  0:01:23  485
    16  4.2677e-01  5.6698e-03  2.5082e-03  5.6615e-03  1.1817e-02  0:01:06  484
    17  3.8757e-01  4.9476e-03  2.2095e-03  4.7553e-03  9.6904e-03  0:00:53  483
    18  3.3858e-01  4.2485e-03  1.8902e-03  3.8602e-03  7.5669e-03  0:00:42  482
    19  2.9835e-01  3.6268e-03  1.5989e-03  3.1032e-03  6.1459e-03  0:02:10  481
    20  2.5788e-01  3.1198e-03  1.3459e-03  2.5054e-03  5.4854e-03  0:01:44  480
    21  2.1696e-01  2.7209e-03  1.1293e-03  2.0111e-03  4.5721e-03  0:01:23  479
    22  1.8210e-01  2.4227e-03  9.4806e-04  1.6495e-03  3.5938e-03  0:01:06  478

  iter  continuity  x-velocity  y-velocity           k     epsilon     time/iter
    23  1.5178e-01  2.1906e-03  8.1314e-04  1.4302e-03  3.2509e-03  0:00:53  477
    24  1.3036e-01  2.0061e-03  7.1825e-04  1.3019e-03  2.8112e-03  0:00:42  476
    25  1.1270e-01  1.7906e-03  6.5276e-04  1.1751e-03  2.1893e-03  0:00:34  475
    26  1.0335e-01  1.5945e-03  6.0194e-04  1.0602e-03  1.8749e-03  0:00:27  474
    27  9.6883e-02  1.4312e-03  5.7549e-04  9.6147e-04  1.4938e-03  0:01:56  473
    28  9.2798e-02  1.2848e-03  5.5434e-04  8.7963e-04  1.1942e-03  0:01:33  472
    29  9.0861e-02  1.1607e-03  5.3555e-04  8.2168e-04  9.7572e-04  0:01:14  471
    30  8.8696e-02  1.0484e-03  5.1076e-04  7.6865e-04  8.1708e-04  0:00:59  470
    31  8.5867e-02  9.4959e-04  4.8005e-04  7.2109e-04  7.0941e-04  0:02:21  469
    32  8.2934e-02  8.5973e-04  4.5661e-04  6.7513e-04  6.2104e-04  0:01:52  468
    33  8.0232e-02  7.8188e-04  4.3611e-04  6.3544e-04  5.7095e-04  0:01:30  467

  iter  continuity  x-velocity  y-velocity           k     epsilon     time/iter
    34  7.8355e-02  7.1005e-04  4.1644e-04  6.0234e-04  5.4370e-04  0:01:12  466
    35  7.5666e-02  6.4681e-04  3.9763e-04  5.6975e-04  5.1790e-04  0:00:57  465
    36  7.1974e-02  5.9346e-04  3.7726e-04  5.3787e-04  4.9366e-04  0:00:46  464
    37  6.6833e-02  5.4064e-04  3.5670e-04  5.0476e-04  4.6474e-04  0:00:36  463
    38  6.2655e-02  4.9679e-04  3.3648e-04  4.7388e-04  4.3698e-04  0:00:29  462
    39  5.9260e-02  4.5311e-04  3.1680e-04  4.4445e-04  4.1765e-04  0:00:23  461
    40  5.4773e-02  4.0755e-04  2.9765e-04  4.1351e-04  3.9728e-04  0:01:51  460
    41  5.0930e-02  3.7181e-04  2.7825e-04  3.8447e-04  3.7873e-04  0:01:28  459
    42  4.7320e-02  3.3900e-04  2.5919e-04  3.5841e-04  3.5183e-04  0:01:10  458
    43  4.3219e-02  3.0758e-04  2.4248e-04  3.3558e-04  3.3663e-04  0:00:56  457
    44  4.0904e-02  2.8165e-04  2.2763e-04  3.1584e-04  3.1410e-04  0:00:45  456

  iter  continuity  x-velocity  y-velocity           k     epsilon     time/iter
    45  3.8818e-02  2.6250e-04  2.1400e-04  2.9896e-04  2.9903e-04  0:00:36  455
    46  3.6969e-02  2.4415e-04  2.0013e-04  2.8776e-04  3.1875e-04  0:00:29  454
    47  3.4911e-02  2.2778e-04  1.8875e-04  2.7599e-04  2.9827e-04  0:01:53  453
    48  3.2580e-02  2.1205e-04  1.7606e-04  2.6514e-04  2.7560e-04  0:01:31  452
    49  3.0188e-02  1.9751e-04  1.6473e-04  2.5563e-04  2.3603e-04  0:01:12  451
    50  2.7608e-02  1.8365e-04  1.5359e-04  2.4651e-04  2.2658e-04  0:00:58  450
    51  2.4982e-02  1.7005e-04  1.4250e-04  2.3904e-04  2.1032e-04  0:00:46  449
    52  2.2888e-02  1.5789e-04  1.3204e-04  2.3264e-04  2.0238e-04  0:00:37  448
    53  2.1023e-02  1.4753e-04  1.2203e-04  2.2789e-04  1.9906e-04  0:00:29  447
    54  1.9442e-02  1.3784e-04  1.1305e-04  2.2285e-04  1.9939e-04  0:00:23  446
    55  1.7995e-02  1.2973e-04  1.0504e-04  2.1799e-04  1.9927e-04  0:01:48  445

  iter  continuity  x-velocity  y-velocity           k     epsilon     time/iter
    56  1.6733e-02  1.2290e-04  9.7581e-05  2.1312e-04  1.9850e-04  0:01:26  444
    57  1.5744e-02  1.1687e-04  9.1101e-05  2.0798e-04  1.9672e-04  0:01:09  443
    58  1.4780e-02  1.1103e-04  8.5275e-05  2.0251e-04  1.9404e-04  0:00:55  442
    59  1.3807e-02  1.0559e-04  7.9847e-05  1.9692e-04  1.9085e-04  0:00:44  441
    60  1.2979e-02  1.0028e-04  7.5062e-05  1.9121e-04  1.8699e-04  0:02:03  440
    61  1.2241e-02  9.5098e-05  7.0925e-05  1.8531e-04  1.8272e-04  0:01:38  439
    62  1.1350e-02  9.0169e-05  6.7050e-05  1.7956e-04  1.8025e-04  0:01:18  438
    63  1.0563e-02  8.5606e-05  6.3444e-05  1.7422e-04  1.7548e-04  0:01:02  437
    64  9.8914e-03  8.1107e-05  6.0232e-05  1.6878e-04  1.7013e-04  0:00:50  436
    65  9.3667e-03  7.6821e-05  5.7139e-05  1.6338e-04  1.6476e-04  0:00:40  435
    66  8.8968e-03  7.2761e-05  5.4322e-05  1.5807e-04  1.5993e-04  0:00:32  434

  iter  continuity  x-velocity  y-velocity           k     epsilon     time/iter
    67  8.4149e-03  6.8839e-05  5.1617e-05  1.5294e-04  1.5482e-04  0:00:25  433
    68  7.8886e-03  6.4840e-05  4.8946e-05  1.4785e-04  1.4992e-04  0:00:20  432
    69  7.4330e-03  6.0232e-05  4.5527e-05  1.4263e-04  1.4393e-04  0:01:42  431
    70  6.9941e-03  5.6526e-05  4.2833e-05  1.3752e-04  1.3932e-04  0:01:22  430
    71  6.6713e-03  5.3303e-05  4.0888e-05  1.3254e-04  1.3441e-04  0:01:05  429
    72  6.4004e-03  5.0523e-05  3.9086e-05  1.2755e-04  1.2983e-04  0:00:52  428
    73  6.1065e-03  4.7958e-05  3.7245e-05  1.2269e-04  1.2534e-04  0:00:42  427
    74  5.7730e-03  4.5594e-05  3.5312e-05  1.1806e-04  1.2106e-04  0:00:33  426
    75  5.4645e-03  4.3289e-05  3.3512e-05  1.1359e-04  1.1703e-04  0:00:26  425
    76  5.1899e-03  4.1122e-05  3.1826e-05  1.0920e-04  1.1296e-04  0:00:21  424
    77  4.9242e-03  3.9012e-05  3.0157e-05  1.0491e-04  1.0902e-04  0:01:41  423

  iter  continuity  x-velocity  y-velocity           k     epsilon     time/iter
    78  4.6657e-03  3.7031e-05  2.8645e-05  1.0070e-04  1.0585e-04  0:01:21  422
    79  4.4136e-03  3.5140e-05  2.7192e-05  9.6634e-05  1.0198e-04  0:01:05  421
    80  4.1827e-03  3.3383e-05  2.5894e-05  9.2647e-05  9.8095e-05  0:00:52  420
    81  3.9582e-03  3.1683e-05  2.4667e-05  8.8778e-05  9.3788e-05  0:00:41  419
    82  3.7662e-03  3.0144e-05  2.3529e-05  8.5004e-05  9.0195e-05  0:00:33  418
    83  3.5831e-03  2.8703e-05  2.2475e-05  8.1373e-05  8.6696e-05  0:00:26  417
    84  3.3997e-03  2.7399e-05  2.1466e-05  7.7869e-05  8.3239e-05  0:01:44  416
    85  3.2677e-03  2.6165e-05  2.0664e-05  7.4490e-05  7.9967e-05  0:01:23  415
    86  3.0854e-03  2.5049e-05  1.9784e-05  7.1178e-05  7.6748e-05  0:01:06  414
    87  2.9487e-03  2.4003e-05  1.9015e-05  6.8024e-05  7.3617e-05  0:00:53  413
    88  2.8599e-03  2.2996e-05  1.8281e-05  6.4986e-05  7.0611e-05  0:00:42  412

  iter  continuity  x-velocity  y-velocity           k     epsilon     time/iter
    89  2.7642e-03  2.2113e-05  1.7571e-05  6.2044e-05  6.7564e-05  0:00:34  411
    90  2.6875e-03  2.1275e-05  1.6891e-05  5.9218e-05  6.4747e-05  0:00:27  410
    91  2.6168e-03  2.0460e-05  1.6263e-05  5.6489e-05  6.1939e-05  0:01:43  409
    92  2.5388e-03  1.9671e-05  1.5668e-05  5.3907e-05  5.9278e-05  0:01:22  408
    93  2.4479e-03  1.8912e-05  1.5080e-05  5.1401e-05  5.6610e-05  0:01:06  407
    94  2.3755e-03  1.8192e-05  1.4473e-05  4.8978e-05  5.4090e-05  0:00:52  406
    95  2.3125e-03  1.7504e-05  1.3901e-05  4.6641e-05  5.1551e-05  0:00:42  405
    96  2.2467e-03  1.6912e-05  1.3394e-05  4.4408e-05  4.9295e-05  0:00:33  404
    97  2.1740e-03  1.6318e-05  1.2898e-05  4.2276e-05  4.7042e-05  0:00:27  403
    98  2.0954e-03  1.5750e-05  1.2384e-05  4.0215e-05  4.4718e-05  0:00:21  402
    99  2.0195e-03  1.5193e-05  1.1935e-05  3.8251e-05  4.2592e-05  0:00:17  401

  iter  continuity  x-velocity  y-velocity           k     epsilon     time/iter
   100  1.9429e-03  1.4683e-05  1.1461e-05  3.6364e-05  4.0550e-05  0:01:34  400
   101  1.8692e-03  1.4172e-05  1.1022e-05  3.4564e-05  3.8532e-05  0:01:15  399
   102  1.8017e-03  1.3680e-05  1.0573e-05  3.2836e-05  3.6639e-05  0:01:00  398
   103  1.7325e-03  1.3216e-05  1.0175e-05  3.1176e-05  3.4807e-05  0:00:48  397
   104  1.6628e-03  1.2745e-05  9.7701e-06  2.9592e-05  3.3333e-05  0:00:38  396
   105  1.6023e-03  1.2314e-05  9.4107e-06  2.8056e-05  3.1552e-05  0:00:30  395
   106  1.5348e-03  1.1879e-05  9.0428e-06  2.6585e-05  3.0046e-05  0:00:24  394
   107  1.4774e-03  1.1445e-05  8.6966e-06  2.5156e-05  2.8636e-05  0:01:38  393
   108  1.4157e-03  1.1034e-05  8.3674e-06  2.3806e-05  2.7182e-05  0:01:18  392
   109  1.3586e-03  1.0640e-05  8.0431e-06  2.2532e-05  2.5848e-05  0:01:02  391
   110  1.3042e-03  1.0267e-05  7.7386e-06  2.1305e-05  2.4549e-05  0:00:50  390

  iter  continuity  x-velocity  y-velocity           k     epsilon     time/iter
   111  1.2524e-03  9.8897e-06  7.4464e-06  2.0147e-05  2.3277e-05  0:00:40  389
   112  1.2028e-03  9.5292e-06  7.1591e-06  1.9019e-05  2.2071e-05  0:00:32  388
   113  1.1545e-03  9.1683e-06  6.8852e-06  1.7946e-05  2.1017e-05  0:00:25  387
   114  1.1048e-03  8.8366e-06  6.6055e-06  1.6918e-05  1.9916e-05  0:00:20  386
   115  1.0591e-03  8.4947e-06  6.3435e-06  1.5940e-05  1.8880e-05  0:01:33  385
   116  1.0193e-03  8.1655e-06  6.0928e-06  1.5003e-05  1.7901e-05  0:01:14  384
   117  9.7795e-04  7.8720e-06  5.8657e-06  1.4121e-05  1.6892e-05  0:00:59  383
!  117 solution is converged